320
Lattice="16.832937771199997 0.0 0.0 0.0 16.832937771199997 0.0 0.0 0.0 16.832937771199997" Properties=species:S:1:pos:R:3 pbc="T T T"
Ba       0.07450712      -0.02073965       0.09715328
Zr       2.33257170       2.06899421       2.06899668
O        2.34099914       2.21923243      -0.07042116
O        2.18550123      -0.06951265       2.03425776
O        0.03629434       1.81712518       1.84537955
Ba      -0.08434313      -0.15192467       4.25537154
Zr       1.96791361       1.89227166       6.53219898
O        2.07025077       2.11424645       3.99452221
O        2.02245981       0.01663839       6.13970262
O        0.05635470       2.01402142       6.26859760
Ba      -0.09025599       0.27784173       8.41444431
Zr       1.94546058       2.22749896      10.33745956
O        2.13544676       1.81016670       8.21724098
O        2.13364641       0.11076999      10.54629135
O       -0.01734724       2.05895167      10.29880781
Ba      -0.10797663      -0.06909582      12.78327166
Zr       2.15565996       1.83966120      14.77743315
O        2.04635488       2.00257892      12.71645477
O        2.25876715       0.13969202      14.60293792
O       -0.04638186       2.15380673      14.87515232
Ba      -0.07187614       4.18038559      -0.16595025
Zr       1.92468623       6.43423053       2.30755322
O        2.09331570       6.46288159       0.05424540
O        2.00734926       4.26244378       2.33482270
O       -0.00537391       6.54704821       1.71115545
Ba       0.12328538       4.22129150       4.16338334
Zr       2.11788134       6.01421632       6.27940088
O        2.15768411       6.53403577       4.13049391
O        1.98284318       4.13297088       6.44966198
O        0.04931267       6.23288763       6.38934177
Ba       0.01456163       4.35353119       8.31116093
Zr       2.05496790       6.25353544      10.30105887
O        2.14853526       6.35150995       8.41723591
O        2.06892915       3.99592883      10.45748931
O       -0.05140718       6.19201007      10.49639325
Ba       0.06060763       4.49116233      12.65089000
Zr       2.14274978       6.30118477      14.44100487
O        2.10014014       6.32138619      12.99418965
O        2.07526308       4.25346654      14.72361378
O       -0.17530171       6.48377508      14.84161050
Ba       0.11865479       8.28006077       0.21041915
Zr       1.89383956      10.60861467       2.43268556
O        1.95553677      10.43564145       0.01494770
O        2.02859587       8.18386938       2.11440167
O       -0.15934556      10.59162497       1.96620358
Ba       0.23249016       8.29898090       4.15992521
Zr       2.22614480      10.33595646       6.34647065
O        2.30018863      10.27946362       4.23592952
O        2.14309964       8.53374232       6.12680905
O       -0.19806849      10.59887734       6.35689936
Ba       0.03757393       8.46843612       8.31446518
Zr       2.13895527      10.56454698      10.41343340
O        2.38398340      10.59166105       8.23777337
O        2.20260026       8.27026664      10.63864880
O        0.17378934      10.39748376      10.66509253
Ba       0.06191714       8.53977791      12.90922228
Zr       2.06730900      10.40752569      14.59539339
O        1.98174568      10.50902085      12.67587613
O        2.14562084       8.54054638      14.73077083
O        0.21803011      10.48088759      15.13684592
Ba       0.09385010      12.49612970      -0.16063387
Zr       2.17648808      14.69530113       2.21121729
O        2.17510286      14.71789621      -0.12701906
O        1.87689014      12.55772609       2.23257704
O        0.03211406      14.54195973       2.13009436
Ba       0.05779761      12.49212471       4.23129321
Zr       2.11284853      14.55737501       6.36601976
O        2.18823490      14.89127824       4.36630475
O        1.89746681      12.48402957       6.38960695
O        0.07706789      14.80607770       6.89026138
Ba       0.08563358      12.79503818       8.55956915
Zr       2.20182591      14.68153016      10.63443149
O        1.98819344      14.69329776       8.34366436
O        2.11639834      12.97190212      10.24049633
O        0.10293903      14.48691317      10.44979633
Ba       0.16334259      12.63434533      12.46304161
Zr       1.99682166      14.83076021      14.61926556
O        2.13658601      14.73565633      12.52696328
O        2.42570883      12.71979118      14.42504916
O        0.02796815      14.62955258      14.85668555
Ba       4.08935633      -0.01721047       0.07574809
Zr       6.44221494       1.92407276       2.05394203
O        6.24110986       2.00611784       0.26481814
O        6.37309892      -0.18913259       2.24179651
O        4.52655787       2.25898701       1.87621173
Ba       4.13559933       0.19003667       4.10208402
Zr       6.37892457       2.22031233       6.17331209
O        6.30342286       1.61792712       4.05457629
O        6.27446644      -0.18716748       6.55721336
O        3.99371323       2.03811055       6.33196275
Ba       4.42442543      -0.21537932       8.59094345
Zr       6.31388662       1.95689092      10.58990163
O        6.34221061       2.01408469       8.42693920
O        6.25455462       0.01702760      10.61990571
O        4.44613696       1.91844490      10.84054112
Ba       3.91542127      -0.02276776      12.71295091
Zr       6.35450044       2.01071229      14.69760221
O        6.23840152       2.01571251      12.75214364
O        6.36590398      -0.10393644      14.86376053
O        4.25432937       2.22604654      14.82326488
Ba       4.08388519       4.12420728       0.11209404
Zr       6.40390720       6.30921642       2.12171633
O        6.50400139       6.22361595       0.08206461
O        6.28202276       4.17558226       2.26893375
O        4.33204689       6.43437811       2.29993904
Ba       4.21138502       4.31052739       4.16169443
Zr       6.36097661       6.29283020       6.32690105
O        6.40162521       6.18961856       4.52209253
O        6.16144905       4.02610615       6.48606829
O        4.32698384       6.40596963       6.40660349
Ba       4.20639742       4.07364628       8.42783957
Zr       6.21077740       6.45861962      10.49852750
O        6.18852708       6.26414378       8.47840861
O        6.22779298       4.08490138      10.55713919
O        4.24497943       6.23631018      10.44993036
Ba       4.24304193       3.99102179      12.41358376
Zr       6.20458503       6.28033459      14.77545668
O        6.53365509       6.44100060      12.60071255
O        6.30949923       4.05785504      14.72604358
O        4.16493564       6.36075944      14.60473591
Ba       4.28613642       8.64637973      -0.01631402
Zr       6.37260842      10.62410771       2.04393415
O        6.34596553      10.52247497       0.01465141
O        6.19640019       8.42014542       2.17881696
O        4.42590598      10.66447673       2.42709459
Ba       4.09313231       8.54731699       4.23573574
Zr       6.64082210      10.39934137       6.18639338
O        6.22244276      10.20200175       4.12937119
O        6.19848176       8.43902796       6.36361506
O        4.48966007      10.66314969       6.22581611
Ba       4.07347224       8.49025677       8.21843391
Zr       6.58707047      10.69750213      10.45020976
O        6.05538148      10.72366697       8.39928791
O        6.49802411       8.17730474      10.43067986
O        4.20902099      10.52763320      10.45307629
Ba       4.30166193       8.25632583      12.60334641
Zr       6.33039600      10.59775194      14.83556278
O        6.14365535      10.29046898      12.81635485
O        6.36219876       8.30419591      14.96149335
O        4.22558564      10.69748069      14.73894832
Ba       4.51734663      12.88800446      -0.03734462
Zr       6.45808730      14.82562694       2.30941195
O        6.16761314      14.83172827       0.15876367
O        6.04854074      12.44721455       1.79823239
O        4.16782341      14.83645189       2.32947078
Ba       4.21934866      12.86899566       4.00121922
Zr       6.05684429      14.72048840       6.36996148
O        6.30744745      14.41870423       4.19486643
O        6.11668123      12.72515421       6.36734140
O        4.06725247      14.65174051       6.15346963
Ba       4.19883258      12.76797468       8.26860998
Zr       6.38795864      14.64928191      10.40165519
O        6.29629711      14.57353420       8.33342149
O        6.13266998      12.91941210      10.52587564
O        4.10327561      14.76091754      10.50373690
Ba       4.17508900      12.71682834      12.73832949
Zr       6.23277649      14.64244781      14.68756280
O        5.96706349      14.50154189      12.82973447
O        6.55909682      12.58734792      14.81530409
O        4.25492196      15.19065267      14.89675679
Ba       8.39728125      -0.14333107      -0.24096695
Zr      10.55110566       1.99066461       1.89077916
O       10.42360018       1.94188502       0.25307125
O       10.65283207      -0.00119590       2.32610884
O        8.42807414       1.97492459       2.33258583
Ba       8.49730540      -0.15558692       4.17968364
Zr      10.38924337       1.89669726       6.45127829
O       10.80699861       1.89433208       4.29267983
O       10.42298972      -0.07306881       6.22349257
O        8.28687027       2.11139546       6.18770914
Ba       8.45703741      -0.00753572       8.38062668
Zr      10.38445156       2.01760152      10.63389479
O       10.59572369       1.95748393       8.43136874
O       10.63329418      -0.25041079      10.60209014
O        8.31707533       2.18970702      10.40609724
Ba       8.14573657      -0.24413137      12.63191607
Zr      10.55954449       1.96846973      14.82460942
O       10.27135810       2.09420525      12.44305090
O       10.42281069       0.00710980      14.59975855
O        8.35878556       2.25506114      14.64228677
Ba       8.54182271       4.03877841       0.07947063
Zr      10.73682140       5.94160498       1.98458293
O       10.60714693       6.28189485       0.05567188
O       10.42998833       4.22122291       2.08076563
O        8.59163620       6.35051479       2.15475762
Ba       8.35468735       4.13509351       4.14335071
Zr      10.57975393       6.24920399       6.35581789
O       10.83189623       6.44302037       4.15933091
O       10.70076820       4.14702313       6.00663298
O        8.26525594       6.03173287       6.25962464
Ba       8.41923165       4.45970004       8.46550800
Zr      10.48772103       6.43676250      10.18891581
O       10.55592829       6.42798144       8.19468095
O       10.69214922       4.25900890      10.45829292
O        8.51138617       6.65295559      10.54786605
Ba       8.45370198       4.13933031      12.49722667
Zr      10.64513648       6.18393909      14.73955549
O       10.44893749       6.38419863      12.67475265
O       10.67621710       4.13173198      14.68833931
O        8.26965433       6.24570767      14.78541562
Ba       8.53001718       8.27814409       0.13044089
Zr      10.72393179      10.58260135       2.38563659
O       10.40451773      10.33388790      -0.26680804
O       10.74499276       8.51462374       2.09577952
O        8.45846418      10.35176275       2.47098002
Ba       8.43585207       8.43287811       4.31709943
Zr      10.59273749      10.55416871       6.19378049
O       10.59130636      10.80288978       4.41004745
O       10.75956410       8.33978654       6.16391094
O        8.39760085      10.52894485       6.47648039
Ba       8.16259920       8.64590144       8.39276771
Zr      10.45655395      10.36877045      10.27235761
O       10.64406170      10.53158381       8.22297476
O       10.32632429       8.36610119      10.77093934
O        8.37753019      10.29511467      10.48372465
Ba       8.37556035       8.01193589      12.61655910
Zr      10.48594593      10.62501706      15.00616396
O       10.68957086      10.48025281      12.45872444
O       10.90659008       8.42535166      14.73090994
O        8.41285013      10.55029882      14.70716649
Ba       8.33041959      12.54267449      -0.00491299
Zr      10.43907239      14.62189368       2.12008175
O       10.48233953      14.95441950      -0.39764547
O       10.68431214      12.81161611       1.79310869
O        8.36506575      14.67310442       1.89299047
Ba       8.29979639      12.45811695       4.47107501
Zr      10.66093787      14.91955381       6.42060247
O       10.35122834      14.65014251       4.28164062
O       10.33726694      12.73165309       6.27630285
O        8.36024577      14.83546455       6.37899116
Ba       8.36232397      12.79860280       8.25430939
Zr      10.61297645      14.81778574      10.47415414
O       10.56950606      14.54115351       8.55507294
O       10.49285079      12.54629488      10.67793749
O        8.31081734      14.51755136      10.28709173
Ba       8.50737038      12.43263893      12.88792246
Zr      10.20829670      14.98328901      14.76047317
O       10.50607914      14.64708269      12.68457375
O       10.51494090      12.79019861      14.74595470
O        8.43901415      14.67427872      14.72027871
Ba      12.67087360      -0.25652526      -0.20222781
Zr      14.84031016       2.12974704       2.07651972
O       14.73158564       2.15625448      -0.08096395
O       14.61207484       0.02937679       1.95736130
O       12.68594124       1.84872968       2.25849057
Ba      12.69559295       0.03840446       4.35563809
Zr      14.97864172       2.25627273       6.03622053
O       14.53688400       2.01039443       4.21214810
O       14.80646940      -0.10886157       6.34036667
O       12.51139589       2.01238955       6.10135250
Ba      12.48621834      -0.20275269       8.27008790
Zr      14.88686682       1.96170739      10.91544342
O       14.80281824       2.13184264       8.28771522
O       14.83386703      -0.08634567      10.53888758
O       13.00871601       2.08970824      10.69297711
Ba      12.51922687      -0.00524827      12.89032343
Zr      14.63477549       2.37598450      14.83498334
O       14.64445053       2.19897838      12.77058650
O       14.82209204      -0.23553371      14.61974997
O       12.58757553       2.09295221      14.82192136
Ba      12.65135848       4.00793279       0.05702968
Zr      14.82040841       6.39632023       2.26623433
O       14.85390887       6.38122867      -0.01052486
O       14.47967641       4.27267717       2.13527037
O       12.66544016       6.12083937       1.94195874
Ba      12.78267626       4.20230117       4.31045954
Zr      14.73306831       6.31681508       6.45309423
O       14.65141384       6.32676978       4.13889315
O       14.66364612       4.16185862       6.34567173
O       12.55289104       6.50071508       6.17816056
Ba      12.59667258       4.14227478       8.63351557
Zr      14.75830377       6.46712834      10.29775205
O       14.76887809       6.44579628       8.42881149
O       14.88864261       4.13064117      10.73198823
O       12.96953805       6.25792588      10.45376073
Ba      12.84271100       4.44517026      12.54627433
Zr      14.66579253       6.27008397      14.52715297
O       14.59102276       6.16173054      12.50953370
O       14.72361782       4.24336665      14.96139562
O       12.47495022       6.46000002      14.69672222
Ba      12.61728377       8.51769181      -0.16840830
Zr      14.78618201      10.54555394       2.17798491
O       14.77219585      10.88888113      -0.09566100
O       14.64917101       8.32299781       2.02079565
O       12.52909526      10.69893859       2.31719286
Ba      12.53909139       8.29161555       4.27894677
Zr      14.64598709      10.61552588       6.34279011
O       14.50145893      10.75271189       4.47761609
O       14.63690225       8.35831366       6.35523147
O       12.67487185      10.61936775       6.61388234
Ba      12.59816125       8.29672430       8.20957101
Zr      14.61918104      10.51561706      10.78976979
O       14.65117886      10.55415430       8.41400546
O       14.90707954       8.79550875      10.44095579
O       12.55128741      10.67721024      10.62286983
Ba      12.90170943       8.50405812      12.57080952
Zr      14.81741877      10.68689165      14.85189288
O       14.80491165      10.68058731      12.80009767
O       14.93614440       8.51377537      14.70375284
O       12.64671038      10.70156245      14.60628020
Ba      12.68000433      12.56570251       0.00431172
Zr      14.92058833      14.75748541       2.11108270
O       14.52484213      14.84075858       0.09682263
O       15.05330876      12.57853659       2.13698977
O       12.66211088      14.96543854       2.08982289
Ba      12.66655656      12.71588781       4.23622581
Zr      14.66185551      14.75793405       6.47339642
O       14.57484326      14.74876600       4.10321632
O       14.90807754      12.39622529       6.22851338
O       12.68128511      14.96364915       6.30248912
Ba      12.54142340      12.90687689       8.19926680
Zr      14.39899966      14.79482272      10.44527798
O       14.57563563      14.83507402       8.45303900
O       14.64420876      12.43265767      10.65145471
O       12.72223351      14.71394417      10.79758166
Ba      12.46419062      12.39587455      12.52091712
Zr      14.72198265      14.76532147      14.69263514
O       14.78162886      14.54108964      12.84126802
O       14.71649787      12.79229770      14.78022935
O       12.69321631      14.81428564      14.79597683
